  Page 1                                    Wed May 31 10:54:30 2023

  ******************************************************************
  *                           E P A N E T                          *
  *                   Hydraulic and Water Quality                  *
  *                   Analysis for Pipe Networks                   *
  *                         Version 2.2                            *
  ******************************************************************
  
  Analysis begun Wed May 31 10:54:30 2023

   
  Hydraulic Status:
  -----------------------------------------------------------------------
     0:00:00: Balanced after 6 trials
     0:00:00: Reservoir 15 is emptying
     0:00:00: Reservoir 43 is emptying
     0:00:00: Reservoir 65 is emptying
   
  Analysis ended Wed May 31 10:54:30 2023
