  Page 1                                    Fri Sep 22 12:12:52 2023

  ******************************************************************
  *                           E P A N E T                          *
  *                   Hydraulic and Water Quality                  *
  *                   Analysis for Pipe Networks                   *
  *                         Version 2.2                            *
  ******************************************************************
  
  Analysis begun Fri Sep 22 12:12:52 2023

   
  Hydraulic Status:
  -----------------------------------------------------------------------
     0:00:00: Balanced after 7 trials
     0:00:00: Reservoir 37 is emptying
     0:00:00: Tank 38 is closed at 20.00 m
     0:00:00: Pipe 59 temporarily closed
   
     1:00:00: Balanced after 4 trials
   
     2:00:00: Balanced after 4 trials
   
     3:00:00: Balanced after 4 trials
   
     4:00:00: Balanced after 3 trials
   
     5:00:00: Balanced after 4 trials
   
     6:00:00: Balanced after 4 trials
   
     7:00:00: Balanced after 5 trials
   
     8:00:00: Balanced after 5 trials
   
     9:00:00: Balanced after 4 trials
   
    10:00:00: Balanced after 4 trials
   
    11:00:00: Balanced after 4 trials
   
    12:00:00: Balanced after 4 trials
   
    13:00:00: Balanced after 3 trials
   
    14:00:00: Balanced after 3 trials
   
    15:00:00: Balanced after 5 trials
   
    16:00:00: Balanced after 4 trials
   
    17:00:00: Balanced after 5 trials
   
    18:00:00: Balanced after 4 trials
   
    19:00:00: Balanced after 2 trials
   
    20:00:00: Balanced after 2 trials
   
    21:00:00: Balanced after 3 trials
   
    22:00:00: Balanced after 3 trials
   
    23:00:00: Balanced after 3 trials
   
    24:00:00: Balanced after 5 trials
   
  Water Quality Mass Balance (mg)
  ================================
  Initial Mass:      0.00000e+000
  Mass Inflow:       4.91313e+005
  Mass Outflow:      4.71916e+005
  Mass Reacted:      0.00000e+000
  Final Mass:        1.93967e+004
  Mass Ratio:         1.00000
  ================================

  Analysis ended Fri Sep 22 12:12:52 2023
