  Page 1                                    Mon Dec 05 12:02:26 2022

  ******************************************************************
  *                           E P A N E T                          *
  *                   Hydraulic and Water Quality                  *
  *                   Analysis for Pipe Networks                   *
  *                         Version 2.2                            *
  ******************************************************************
  
  Analysis begun Mon Dec 05 12:02:26 2022

  Analysis ended Mon Dec 05 12:02:26 2022
