  Page 1                                    Mon Apr 10 18:18:28 2023

  ******************************************************************
  *                           E P A N E T                          *
  *                   Hydraulic and Water Quality                  *
  *                   Analysis for Pipe Networks                   *
  *                         Version 2.2                            *
  ******************************************************************
  
  Analysis begun Mon Apr 10 18:18:28 2023

  Analysis ended Mon Apr 10 18:18:28 2023
